[board]
type=ArmSystem
children=cache_hierarchy clk_domain dvfs_handler iobus memory pci_devices pickle_device_decoders pickle_device_isas pickle_device_mmus pickle_device_prefetchers pickle_device_request_manager pickle_devices processor realview release terminal traffic_snoopers0 traffic_snoopers1 traffic_snoopers2 traffic_snoopers3 traffic_snoopers4 traffic_snoopers5 traffic_snoopers6 traffic_snoopers7 vncserver voltage_domain workload
auto_reset_addr=true
auto_unlink_shared_backstore=false
cache_line_size=64
eventq_index=0
exit_on_work_items=true
gic_cpu_addr=738205696
have_large_asid_64=false
highest_el_is_64=true
init_param=0
m5ops_base=268500992
mem_mode=atomic_noncaching
mem_ranges=2147483648:6442450944
memories=board.memory.mem_ctrl0.dram board.memory.mem_ctrl1.dram board.memory.mem_ctrl2.dram board.memory.mem_ctrl3.dram board.realview.bootmem board.realview.flash0 board.realview.flash1 board.realview.non_trusted_sram board.realview.trusted_dram board.realview.trusted_sram board.realview.vram
mmap_using_noreserve=false
multi_proc=true
multi_thread=false
num_work_ids=16
phys_addr_range_64=40
readfile=/workdir/ARTIFACTS/test6//bfs-amazon-checkpoint/readfile_-0x4ffc1c324e477e38
redirect_paths=
release=board.release
reset_addr=0
semihosting=Null
shadow_rom_ranges=
shared_backstore=
sme_vl=1
sve_vl=1
symbolfile=
thermal_components=
thermal_model=Null
work_begin_ckpt_count=0
work_begin_cpu_id_exit=-1
work_begin_exit_count=0
work_cpus_ckpt_count=0
work_end_ckpt_count=0
work_end_exit_count=0
work_item_id=-1
workload=board.workload
system_port=board.cache_hierarchy.ruby_system.sys_port_proxy.in_ports[0]

[board.cache_hierarchy]
type=SubSystem
children=core_tiles0 core_tiles1 core_tiles2 core_tiles3 core_tiles4 core_tiles5 core_tiles6 core_tiles7 dma_tiles dummy_cache_and_l3_router_links0 dummy_cache_and_l3_router_links1 dummy_cache_and_l3_router_links2 dummy_cache_and_l3_router_links3 dummy_cache_and_l3_router_links4 dummy_cache_and_l3_router_links5 dummy_cache_and_l3_router_links6 dummy_cache_and_l3_router_links7 llc_prefetch_agent_dummy_caches0 llc_prefetch_agent_dummy_caches1 llc_prefetch_agent_dummy_caches2 llc_prefetch_agent_dummy_caches3 llc_prefetch_agent_dummy_caches4 llc_prefetch_agent_dummy_caches5 llc_prefetch_agent_dummy_caches6 llc_prefetch_agent_dummy_caches7 llc_prefetch_agent_sequencers0 llc_prefetch_agent_sequencers1 llc_prefetch_agent_sequencers2 llc_prefetch_agent_sequencers3 llc_prefetch_agent_sequencers4 llc_prefetch_agent_sequencers5 llc_prefetch_agent_sequencers6 llc_prefetch_agent_sequencers7 llc_prefetch_agents0 llc_prefetch_agents1 llc_prefetch_agents2 llc_prefetch_agents3 llc_prefetch_agents4 llc_prefetch_agents5 llc_prefetch_agents6 llc_prefetch_agents7 memory_tiles0 memory_tiles1 memory_tiles2 memory_tiles3 memory_tiles4 pickle_device_component_tiles ruby_system traffic_mux
eventq_index=0
thermal_domain=Null

[board.cache_hierarchy.core_tiles0]
type=SubSystem
children=cross_tile_router cross_tile_router_to_intra_tile_router_link cross_tile_router_to_l3_router_link intra_tile_router intra_tile_router_to_cross_tile_router_link l1d_cache l1d_router_link l1i_cache l1i_router_link l2_cache l2_router_link l3_router l3_router_link l3_router_to_cross_tile_router_link l3_slice
eventq_index=0
thermal_domain=Null

[board.cache_hierarchy.core_tiles0.cross_tile_router]
type=Switch
children=port_buffers00 port_buffers01 port_buffers02 port_buffers03 port_buffers04 port_buffers05 port_buffers06 port_buffers07 port_buffers08 port_buffers09 port_buffers10 port_buffers11 port_buffers12 port_buffers13 port_buffers14 port_buffers15 port_buffers16 port_buffers17 port_buffers18 port_buffers19 power_state routing_unit
clk_domain=board.clk_domain
eventq_index=0
ext_routing_latency=1
int_routing_latency=1
latency=1
port_buffers=board.cache_hierarchy.core_tiles0.cross_tile_router.port_buffers00 board.cache_hierarchy.core_tiles0.cross_tile_router.port_buffers01 board.cache_hierarchy.core_tiles0.cross_tile_router.port_buffers02 board.cache_hierarchy.core_tiles0.cross_tile_router.port_buffers03 board.cache_hierarchy.core_tiles0.cross_tile_router.port_buffers04 board.cache_hierarchy.core_tiles0.cross_tile_router.port_buffers05 board.cache_hierarchy.core_tiles0.cross_tile_router.port_buffers06 board.cache_hierarchy.core_tiles0.cross_tile_router.port_buffers07 board.cache_hierarchy.core_tiles0.cross_tile_router.port_buffers08 board.cache_hierarchy.core_tiles0.cross_tile_router.port_buffers09 board.cache_hierarchy.core_tiles0.cross_tile_router.port_buffers10 board.cache_hierarchy.core_tiles0.cross_tile_router.port_buffers11 board.cache_hierarchy.core_tiles0.cross_tile_router.port_buffers12 board.cache_hierarchy.core_tiles0.cross_tile_router.port_buffers13 board.cache_hierarchy.core_tiles0.cross_tile_router.port_buffers14 board.cache_hierarchy.core_tiles0.cross_tile_router.port_buffers15 board.cache_hierarchy.core_tiles0.cross_tile_router.port_buffers16 board.cache_hierarchy.core_tiles0.cross_tile_router.port_buffers17 board.cache_hierarchy.core_tiles0.cross_tile_router.port_buffers18 board.cache_hierarchy.core_tiles0.cross_tile_router.port_buffers19
power_model=
power_state=board.cache_hierarchy.core_tiles0.cross_tile_router.power_state
router_id=0
routing_unit=board.cache_hierarchy.core_tiles0.cross_tile_router.routing_unit
virt_nets=4

[board.cache_hierarchy.core_tiles0.cross_tile_router.port_buffers00]
type=MessageBuffer
allow_zero_latency=true
buffer_size=0
eventq_index=0
max_dequeue_rate=0
ordered=true
randomization=ruby_system
routing_priority=0

[board.cache_hierarchy.core_tiles0.cross_tile_router.port_buffers01]
type=MessageBuffer
allow_zero_latency=true
buffer_size=0
eventq_index=0
max_dequeue_rate=0
ordered=true
randomization=ruby_system
routing_priority=0

[board.cache_hierarchy.core_tiles0.cross_tile_router.port_buffers02]
type=MessageBuffer
allow_zero_latency=true
buffer_size=0
eventq_index=0
max_dequeue_rate=0
ordered=true
randomization=ruby_system
routing_priority=0

[board.cache_hierarchy.core_tiles0.cross_tile_router.port_buffers03]
type=MessageBuffer
allow_zero_latency=true
buffer_size=0
eventq_index=0
max_dequeue_rate=0
ordered=true
randomization=ruby_system
routing_priority=0

[board.cache_hierarchy.core_tiles0.cross_tile_router.port_buffers04]
type=MessageBuffer
allow_zero_latency=true
buffer_size=0
eventq_index=0
max_dequeue_rate=0
ordered=true
randomization=ruby_system
routing_priority=0

[board.cache_hierarchy.core_tiles0.cross_tile_router.port_buffers05]
type=MessageBuffer
allow_zero_latency=true
buffer_size=0
eventq_index=0
max_dequeue_rate=0
ordered=true
randomization=ruby_system
routing_priority=0

[board.cache_hierarchy.core_tiles0.cross_tile_router.port_buffers06]
type=MessageBuffer
allow_zero_latency=true
buffer_size=0
eventq_index=0
max_dequeue_rate=0
ordered=true
randomization=ruby_system
routing_priority=0

[board.cache_hierarchy.core_tiles0.cross_tile_router.port_buffers07]
type=MessageBuffer
allow_zero_latency=true
buffer_size=0
eventq_index=0
max_dequeue_rate=0
ordered=true
randomization=ruby_system
routing_priority=0

[board.cache_hierarchy.core_tiles0.cross_tile_router.port_buffers08]
type=MessageBuffer
allow_zero_latency=true
buffer_size=0
eventq_index=0
max_dequeue_rate=0
ordered=true
randomization=ruby_system
routing_priority=0

[board.cache_hierarchy.core_tiles0.cross_tile_router.port_buffers09]
type=MessageBuffer
allow_zero_latency=true
buffer_size=0
eventq_index=0
max_dequeue_rate=0
ordered=true
randomization=ruby_system
routing_priority=0

[board.cache_hierarchy.core_tiles0.cross_tile_router.port_buffers10]
type=MessageBuffer
allow_zero_latency=true
buffer_size=0
eventq_index=0
max_dequeue_rate=0
ordered=true
randomization=ruby_system
routing_priority=0

[board.cache_hierarchy.core_tiles0.cross_tile_router.port_buffers11]
type=MessageBuffer
allow_zero_latency=true
buffer_size=0
eventq_index=0
max_dequeue_rate=0
ordered=true
randomization=ruby_system
routing_priority=0

[board.cache_hierarchy.core_tiles0.cross_tile_router.port_buffers12]
type=MessageBuffer
allow_zero_latency=true
buffer_size=0
eventq_index=0
max_dequeue_rate=0
ordered=true
randomization=ruby_system
routing_priority=0

[board.cache_hierarchy.core_tiles0.cross_tile_router.port_buffers13]
type=MessageBuffer
allow_zero_latency=true
buffer_size=0
eventq_index=0
max_dequeue_rate=0
ordered=true
randomization=ruby_system
routing_priority=0

[board.cache_hierarchy.core_tiles0.cross_tile_router.port_buffers14]
type=MessageBuffer
allow_zero_latency=true
buffer_size=0
eventq_index=0
max_dequeue_rate=0
ordered=true
randomization=ruby_system
routing_priority=0

[board.cache_hierarchy.core_tiles0.cross_tile_router.port_buffers15]
type=MessageBuffer
allow_zero_latency=true
buffer_size=0
eventq_index=0
max_dequeue_rate=0
ordered=true
randomization=ruby_system
routing_priority=0

[board.cache_hierarchy.core_tiles0.cross_tile_router.port_buffers16]
type=MessageBuffer
allow_zero_latency=true
buffer_size=0
eventq_index=0
max_dequeue_rate=0
ordered=true
randomization=ruby_system
routing_priority=0

[board.cache_hierarchy.core_tiles0.cross_tile_router.port_buffers17]
type=MessageBuffer
allow_zero_latency=true
buffer_size=0
eventq_index=0
max_dequeue_rate=0
ordered=true
randomization=ruby_system
routing_priority=0

[board.cache_hierarchy.core_tiles0.cross_tile_router.port_buffers18]
type=MessageBuffer
allow_zero_latency=true
buffer_size=0
eventq_index=0
max_dequeue_rate=0
ordered=true
randomization=ruby_system
routing_priority=0

[board.cache_hierarchy.core_tiles0.cross_tile_router.port_buffers19]
type=MessageBuffer
allow_zero_latency=true
buffer_size=0
eventq_index=0
max_dequeue_rate=0
ordered=true
randomization=ruby_system
routing_priority=0

[board.cache_hierarchy.core_tiles0.cross_tile_router.power_state]
type=PowerState
clk_gate_bins=20
clk_gate_max=1000000000000
clk_gate_min=1000
default_state=UNDEFINED
eventq_index=0
leaders=
possible_states=

[board.cache_hierarchy.core_tiles0.cross_tile_router.routing_unit]
type=WeightBased
adaptive_routing=false
eventq_index=0

[board.cache_hierarchy.core_tiles0.cross_tile_router_to_intra_tile_router_link]
type=SimpleIntLink
children=buffers0 buffers1 buffers2 buffers3
bandwidth_factor=32
buffers=board.cache_hierarchy.core_tiles0.cross_tile_router_to_intra_tile_router_link.buffers0 board.cache_hierarchy.core_tiles0.cross_tile_router_to_intra_tile_router_link.buffers1 board.cache_hierarchy.core_tiles0.cross_tile_router_to_intra_tile_router_link.buffers2 board.cache_hierarchy.core_tiles0.cross_tile_router_to_intra_tile_router_link.buffers3
dst_inport=
dst_node=board.cache_hierarchy.core_tiles0.intra_tile_router
eventq_index=0
latency=1
link_id=1
src_node=board.cache_hierarchy.core_tiles0.cross_tile_router
src_outport=
supported_vnets=
weight=1

[board.cache_hierarchy.core_tiles0.cross_tile_router_to_intra_tile_router_link.buffers0]
type=MessageBuffer
allow_zero_latency=false
buffer_size=0
eventq_index=0
max_dequeue_rate=0
ordered=true
randomization=ruby_system
routing_priority=0

[board.cache_hierarchy.core_tiles0.cross_tile_router_to_intra_tile_router_link.buffers1]
type=MessageBuffer
allow_zero_latency=false
buffer_size=0
eventq_index=0
max_dequeue_rate=0
ordered=true
randomization=ruby_system
routing_priority=0

[board.cache_hierarchy.core_tiles0.cross_tile_router_to_intra_tile_router_link.buffers2]
type=MessageBuffer
allow_zero_latency=false
buffer_size=0
eventq_index=0
max_dequeue_rate=0
ordered=true
randomization=ruby_system
routing_priority=0

[board.cache_hierarchy.core_tiles0.cross_tile_router_to_intra_tile_router_link.buffers3]
type=MessageBuffer
allow_zero_latency=false
buffer_size=0
eventq_index=0
max_dequeue_rate=0
ordered=true
randomization=ruby_system
routing_priority=0

[board.cache_hierarchy.core_tiles0.cross_tile_router_to_l3_router_link]
type=SimpleIntLink
children=buffers0 buffers1 buffers2 buffers3
bandwidth_factor=32
buffers=board.cache_hierarchy.core_tiles0.cross_tile_router_to_l3_router_link.buffers0 board.cache_hierarchy.core_tiles0.cross_tile_router_to_l3_router_link.buffers1 board.cache_hierarchy.core_tiles0.cross_tile_router_to_l3_router_link.buffers2 board.cache_hierarchy.core_tiles0.cross_tile_router_to_l3_router_link.buffers3
dst_inport=
dst_node=board.cache_hierarchy.core_tiles0.l3_router
eventq_index=0
latency=1
link_id=3
src_node=board.cache_hierarchy.core_tiles0.cross_tile_router
src_outport=
supported_vnets=
weight=1

[board.cache_hierarchy.core_tiles0.cross_tile_router_to_l3_router_link.buffers0]
type=MessageBuffer
allow_zero_latency=false
buffer_size=0
eventq_index=0
max_dequeue_rate=0
ordered=true
randomization=ruby_system
routing_priority=0

[board.cache_hierarchy.core_tiles0.cross_tile_router_to_l3_router_link.buffers1]
type=MessageBuffer
allow_zero_latency=false
buffer_size=0
eventq_index=0
max_dequeue_rate=0
ordered=true
randomization=ruby_system
routing_priority=0

[board.cache_hierarchy.core_tiles0.cross_tile_router_to_l3_router_link.buffers2]
type=MessageBuffer
allow_zero_latency=false
buffer_size=0
eventq_index=0
max_dequeue_rate=0
ordered=true
randomization=ruby_system
routing_priority=0

[board.cache_hierarchy.core_tiles0.cross_tile_router_to_l3_router_link.buffers3]
type=MessageBuffer
allow_zero_latency=false
buffer_size=0
eventq_index=0
max_dequeue_rate=0
ordered=true
randomization=ruby_system
routing_priority=0

[board.cache_hierarchy.core_tiles0.intra_tile_router]
type=Switch
children=port_buffers00 port_buffers01 port_buffers02 port_buffers03 port_buffers04 port_buffers05 port_buffers06 port_buffers07 port_buffers08 port_buffers09 port_buffers10 port_buffers11 port_buffers12 port_buffers13 port_buffers14 port_buffers15 power_state routing_unit
clk_domain=board.clk_domain
eventq_index=0
ext_routing_latency=1
int_routing_latency=1
latency=1
port_buffers=board.cache_hierarchy.core_tiles0.intra_tile_router.port_buffers00 board.cache_hierarchy.core_tiles0.intra_tile_router.port_buffers01 board.cache_hierarchy.core_tiles0.intra_tile_router.port_buffers02 board.cache_hierarchy.core_tiles0.intra_tile_router.port_buffers03 board.cache_hierarchy.core_tiles0.intra_tile_router.port_buffers04 board.cache_hierarchy.core_tiles0.intra_tile_router.port_buffers05 board.cache_hierarchy.core_tiles0.intra_tile_router.port_buffers06 board.cache_hierarchy.core_tiles0.intra_tile_router.port_buffers07 board.cache_hierarchy.core_tiles0.intra_tile_router.port_buffers08 board.cache_hierarchy.core_tiles0.intra_tile_router.port_buffers09 board.cache_hierarchy.core_tiles0.intra_tile_router.port_buffers10 board.cache_hierarchy.core_tiles0.intra_tile_router.port_buffers11 board.cache_hierarchy.core_tiles0.intra_tile_router.port_buffers12 board.cache_hierarchy.core_tiles0.intra_tile_router.port_buffers13 board.cache_hierarchy.core_tiles0.intra_tile_router.port_buffers14 board.cache_hierarchy.core_tiles0.intra_tile_router.port_buffers15
power_model=
power_state=board.cache_hierarchy.core_tiles0.intra_tile_router.power_state
router_id=1
routing_unit=board.cache_hierarchy.core_tiles0.intra_tile_router.routing_unit
virt_nets=4

[board.cache_hierarchy.core_tiles0.intra_tile_router.port_buffers00]
type=MessageBuffer
allow_zero_latency=true
buffer_size=0
eventq_index=0
max_dequeue_rate=0
ordered=true
randomization=ruby_system
routing_priority=0

[board.cache_hierarchy.core_tiles0.intra_tile_router.port_buffers01]
type=MessageBuffer
allow_zero_latency=true
buffer_size=0
eventq_index=0
max_dequeue_rate=0
ordered=true
randomization=ruby_system
routing_priority=0

[board.cache_hierarchy.core_tiles0.intra_tile_router.port_buffers02]
type=MessageBuffer
allow_zero_latency=true
buffer_size=0
eventq_index=0
max_dequeue_rate=0
ordered=true
randomization=ruby_system
routing_priority=0

[board.cache_hierarchy.core_tiles0.intra_tile_router.port_buffers03]
type=MessageBuffer
allow_zero_latency=true
buffer_size=0
eventq_index=0
max_dequeue_rate=0
ordered=true
randomization=ruby_system
routing_priority=0

[board.cache_hierarchy.core_tiles0.intra_tile_router.port_buffers04]
type=MessageBuffer
allow_zero_latency=true
buffer_size=0
eventq_index=0
max_dequeue_rate=0
ordered=true
randomization=ruby_system
routing_priority=0

[board.cache_hierarchy.core_tiles0.intra_tile_router.port_buffers05]
type=MessageBuffer
allow_zero_latency=true
buffer_size=0
eventq_index=0
max_dequeue_rate=0
ordered=true
randomization=ruby_system
routing_priority=0

[board.cache_hierarchy.core_tiles0.intra_tile_router.port_buffers06]
type=MessageBuffer
allow_zero_latency=true
buffer_size=0
eventq_index=0
max_dequeue_rate=0
ordered=true
randomization=ruby_system
routing_priority=0

[board.cache_hierarchy.core_tiles0.intra_tile_router.port_buffers07]
type=MessageBuffer
allow_zero_latency=true
buffer_size=0
eventq_index=0
max_dequeue_rate=0
ordered=true
randomization=ruby_system
routing_priority=0

[board.cache_hierarchy.core_tiles0.intra_tile_router.port_buffers08]
type=MessageBuffer
allow_zero_latency=true
buffer_size=0
eventq_index=0
max_dequeue_rate=0
ordered=true
randomization=ruby_system
routing_priority=0

[board.cache_hierarchy.core_tiles0.intra_tile_router.port_buffers09]
type=MessageBuffer
allow_zero_latency=true
buffer_size=0
eventq_index=0
max_dequeue_rate=0
ordered=true
randomization=ruby_system
routing_priority=0

[board.cache_hierarchy.core_tiles0.intra_tile_router.port_buffers10]
type=MessageBuffer
allow_zero_latency=true
buffer_size=0
eventq_index=0
max_dequeue_rate=0
ordered=true
randomization=ruby_system
routing_priority=0

[board.cache_hierarchy.core_tiles0.intra_tile_router.port_buffers11]
type=MessageBuffer
allow_zero_latency=true
buffer_size=0
eventq_index=0
max_dequeue_rate=0
ordered=true
randomization=ruby_system
routing_priority=0

[board.cache_hierarchy.core_tiles0.intra_tile_router.port_buffers12]
type=MessageBuffer
allow_zero_latency=true
buffer_size=0
eventq_index=0
max_dequeue_rate=0
ordered=true
randomization=ruby_system
routing_priority=0

[board.cache_hierarchy.core_tiles0.intra_tile_router.port_buffers13]
type=MessageBuffer
allow_zero_latency=true
buffer_size=0
eventq_index=0
max_dequeue_rate=0
ordered=true
randomization=ruby_system
routing_priority=0

[board.cache_hierarchy.core_tiles0.intra_tile_router.port_buffers14]
type=MessageBuffer
allow_zero_latency=true
buffer_size=0
eventq_index=0
max_dequeue_rate=0
ordered=true
randomization=ruby_system
routing_priority=0

[board.cache_hierarchy.core_tiles0.intra_tile_router.port_buffers15]
type=MessageBuffer
allow_zero_latency=true
buffer_size=0
eventq_index=0
max_dequeue_rate=0
ordered=true
randomization=ruby_system
routing_priority=0

[board.cache_hierarchy.core_tiles0.intra_tile_router.power_state]
type=PowerState
clk_gate_bins=20
clk_gate_max=1000000000000
clk_gate_min=1000
default_state=UNDEFINED
eventq_index=0
leaders=
possible_states=

[board.cache_hierarchy.core_tiles0.intra_tile_router.routing_unit]
type=WeightBased
adaptive_routing=false
eventq_index=0

[board.cache_hierarchy.core_tiles0.intra_tile_router_to_cross_tile_router_link]
type=SimpleIntLink
children=buffers0 buffers1 buffers2 buffers3
bandwidth_factor=32
buffers=board.cache_hierarchy.core_tiles0.intra_tile_router_to_cross_tile_router_link.buffers0 board.cache_hierarchy.core_tiles0.intra_tile_router_to_cross_tile_router_link.buffers1 board.cache_hierarchy.core_tiles0.intra_tile_router_to_cross_tile_router_link.buffers2 board.cache_hierarchy.core_tiles0.intra_tile_router_to_cross_tile_router_link.buffers3
dst_inport=
dst_node=board.cache_hierarchy.core_tiles0.cross_tile_router
eventq_index=0
latency=1
link_id=0
src_node=board.cache_hierarchy.core_tiles0.intra_tile_router
src_outport=
supported_vnets=
weight=1

[board.cache_hierarchy.core_tiles0.intra_tile_router_to_cross_tile_router_link.buffers0]
type=MessageBuffer
allow_zero_latency=false
buffer_size=0
eventq_index=0
max_dequeue_rate=0
ordered=true
randomization=ruby_system
routing_priority=0

[board.cache_hierarchy.core_tiles0.intra_tile_router_to_cross_tile_router_link.buffers1]
type=MessageBuffer
allow_zero_latency=false
buffer_size=0
eventq_index=0
max_dequeue_rate=0
ordered=true
randomization=ruby_system
routing_priority=0

[board.cache_hierarchy.core_tiles0.intra_tile_router_to_cross_tile_router_link.buffers2]
type=MessageBuffer
allow_zero_latency=false
buffer_size=0
eventq_index=0
max_dequeue_rate=0
ordered=true
randomization=ruby_system
routing_priority=0

[board.cache_hierarchy.core_tiles0.intra_tile_router_to_cross_tile_router_link.buffers3]
type=MessageBuffer
allow_zero_latency=false
buffer_size=0
eventq_index=0
max_dequeue_rate=0
ordered=true
randomization=ruby_system
routing_priority=0

[board.cache_hierarchy.core_tiles0.l1d_cache]
type=CHI_Cache_Controller
children=cache datIn datOut mandatoryQueue power_state prefetchQueue replTriggerQueue reqIn reqOut reqRdy retryTriggerQueue rspIn rspOut sequencer snpIn snpOut snpRdy triggerQueue
addr_ranges=0:18446744073709551615
alloc_on_atomic=true
alloc_on_readonce=true
alloc_on_readshared=true
alloc_on_readunique=true
alloc_on_seq_acc=true
alloc_on_seq_line_write=true
alloc_on_writeback=false
allocation_latency=0
allow_SD=true
atomic_op_latency=0
buffer_size=0
cache=board.cache_hierarchy.core_tiles0.l1d_cache.cache
clk_domain=board.clk_domain
cluster_id=0
comp_anr=false
comp_anr_latency=0
comp_wu=false
comp_wu_latency=0
datIn=board.cache_hierarchy.core_tiles0.l1d_cache.datIn
datOut=board.cache_hierarchy.core_tiles0.l1d_cache.datOut
data_channel_size=32
data_latency=1
dealloc_backinv_shared=false
dealloc_backinv_unique=false
dealloc_on_shared=false
dealloc_on_unique=false
dealloc_wait_for_tag=false
downstream_destinations=board.cache_hierarchy.core_tiles0.l2_cache
dvm_ext_tlbi_latency=6
enable_DCT=false
enable_DMT=false
enable_DMT_early_dealloc=false
eventq_index=0
fill_latency=0
fwd_unique_on_readshared=false
is_HN=false
mandatoryQueue=board.cache_hierarchy.core_tiles0.l1d_cache.mandatoryQueue
mandatory_queue_latency=1
max_outstanding_transactions=1024
number_of_DVM_TBEs=16
number_of_DVM_snoop_TBEs=4
number_of_TBEs=16
number_of_repl_TBEs=16
number_of_snoop_TBEs=4
policy_type=0
power_model=
power_state=board.cache_hierarchy.core_tiles0.l1d_cache.power_state
prefetchQueue=board.cache_hierarchy.core_tiles0.l1d_cache.prefetchQueue
prefetcher=Null
read_hit_latency=0
read_miss_latency=0
recycle_latency=10
replTriggerQueue=board.cache_hierarchy.core_tiles0.l1d_cache.replTriggerQueue
reqIn=board.cache_hierarchy.core_tiles0.l1d_cache.reqIn
reqOut=board.cache_hierarchy.core_tiles0.l1d_cache.reqOut
reqRdy=board.cache_hierarchy.core_tiles0.l1d_cache.reqRdy
request_latency=1
response_latency=1
retryTriggerQueue=board.cache_hierarchy.core_tiles0.l1d_cache.retryTriggerQueue
rspIn=board.cache_hierarchy.core_tiles0.l1d_cache.rspIn
rspOut=board.cache_hierarchy.core_tiles0.l1d_cache.rspOut
ruby_system=board.cache_hierarchy.ruby_system
sc_lock_base_latency_cy=4
sc_lock_enabled=false
sc_lock_multiplier_decay=1
sc_lock_multiplier_inc=4
sc_lock_multiplier_max=256
send_evictions=true
sequencer=board.cache_hierarchy.core_tiles0.l1d_cache.sequencer
snoop_latency=1
snpIn=board.cache_hierarchy.core_tiles0.l1d_cache.snpIn
snpOut=board.cache_hierarchy.core_tiles0.l1d_cache.snpOut
snpRdy=board.cache_hierarchy.core_tiles0.l1d_cache.snpRdy
snp_inv_latency=0
snp_latency=0
stall_recycle_lat=1
system=board
throttle_req_on_retry=true
transitions_per_cycle=1024
triggerQueue=board.cache_hierarchy.core_tiles0.l1d_cache.triggerQueue
unify_repl_TBEs=false
upstream_destinations=
upstream_prefetch_trains_prefetcher=false
use_prefetcher=false
version=1
wait_for_cache_wr=false
write_be_latency=0
write_fe_latency=0

[board.cache_hierarchy.core_tiles0.l1d_cache.cache]
type=RubyCache
children=replacement_policy
assoc=12
atomicALUs=64
atomicLatency=0
block_size=0
dataAccessLatency=1
dataArrayBanks=1
eventq_index=0
is_icache=false
replacement_policy=board.cache_hierarchy.core_tiles0.l1d_cache.cache.replacement_policy
resourceStalls=false
size=49152
start_index_bit=6
tagAccessLatency=1
tagArrayBanks=1

[board.cache_hierarchy.core_tiles0.l1d_cache.cache.replacement_policy]
type=TreePLRURP
eventq_index=0
num_leaves=12

[board.cache_hierarchy.core_tiles0.l1d_cache.datIn]
type=MessageBuffer
allow_zero_latency=false
buffer_size=0
eventq_index=0
max_dequeue_rate=0
ordered=false
randomization=ruby_system
routing_priority=0
in_port=board.cache_hierarchy.ruby_system.network.out_port[7]

[board.cache_hierarchy.core_tiles0.l1d_cache.datOut]
type=MessageBuffer
allow_zero_latency=false
buffer_size=0
eventq_index=0
max_dequeue_rate=0
ordered=false
randomization=ruby_system
routing_priority=0
out_port=board.cache_hierarchy.ruby_system.network.in_port[7]

[board.cache_hierarchy.core_tiles0.l1d_cache.mandatoryQueue]
type=MessageBuffer
allow_zero_latency=false
buffer_size=0
eventq_index=0
max_dequeue_rate=0
ordered=false
randomization=ruby_system
routing_priority=0

[board.cache_hierarchy.core_tiles0.l1d_cache.power_state]
type=PowerState
clk_gate_bins=20
clk_gate_max=1000000000000
clk_gate_min=1000
default_state=UNDEFINED
eventq_index=0
leaders=
possible_states=

[board.cache_hierarchy.core_tiles0.l1d_cache.prefetchQueue]
type=MessageBuffer
allow_zero_latency=false
buffer_size=0
eventq_index=0
max_dequeue_rate=0
ordered=false
randomization=ruby_system
routing_priority=0

[board.cache_hierarchy.core_tiles0.l1d_cache.replTriggerQueue]
type=MessageBuffer
allow_zero_latency=true
buffer_size=0
eventq_index=0
max_dequeue_rate=0
ordered=true
randomization=disabled
routing_priority=0

[board.cache_hierarchy.core_tiles0.l1d_cache.reqIn]
type=MessageBuffer
allow_zero_latency=false
buffer_size=0
eventq_index=0
max_dequeue_rate=0
ordered=false
randomization=ruby_system
routing_priority=0
in_port=board.cache_hierarchy.ruby_system.network.out_port[4]

[board.cache_hierarchy.core_tiles0.l1d_cache.reqOut]
type=MessageBuffer
allow_zero_latency=false
buffer_size=0
eventq_index=0
max_dequeue_rate=0
ordered=false
randomization=ruby_system
routing_priority=0
out_port=board.cache_hierarchy.ruby_system.network.in_port[4]

[board.cache_hierarchy.core_tiles0.l1d_cache.reqRdy]
type=MessageBuffer
allow_zero_latency=true
buffer_size=0
eventq_index=0
max_dequeue_rate=0
ordered=false
randomization=disabled
routing_priority=0

[board.cache_hierarchy.core_tiles0.l1d_cache.retryTriggerQueue]
type=MessageBuffer
allow_zero_latency=true
buffer_size=0
eventq_index=0
max_dequeue_rate=0
ordered=true
randomization=disabled
routing_priority=0

[board.cache_hierarchy.core_tiles0.l1d_cache.rspIn]
type=MessageBuffer
allow_zero_latency=false
buffer_size=0
eventq_index=0
max_dequeue_rate=0
ordered=false
randomization=ruby_system
routing_priority=0
in_port=board.cache_hierarchy.ruby_system.network.out_port[5]

[board.cache_hierarchy.core_tiles0.l1d_cache.rspOut]
type=MessageBuffer
allow_zero_latency=false
buffer_size=0
eventq_index=0
max_dequeue_rate=0
ordered=false
randomization=ruby_system
routing_priority=0
out_port=board.cache_hierarchy.ruby_system.network.in_port[5]

[board.cache_hierarchy.core_tiles0.l1d_cache.sequencer]
type=RubySequencer
children=power_state
clk_domain=board.clk_domain
coreid=0
dcache=board.cache_hierarchy.core_tiles0.l1d_cache.cache
deadlock_threshold=500000
eventq_index=0
garnet_standalone=false
is_cpu_sequencer=true
max_outstanding_requests=16
no_retry_on_stall=false
power_model=
power_state=board.cache_hierarchy.core_tiles0.l1d_cache.sequencer.power_state
ruby_system=board.cache_hierarchy.ruby_system
support_data_reqs=true
support_inst_reqs=true
system=board
using_ruby_tester=false
version=1
in_ports=board.traffic_snoopers0.out_port board.processor.cores0.core.mmu.dtb_walker.port
mem_request_port=board.iobus.cpu_side_ports[1]
pio_request_port=board.iobus.cpu_side_ports[0]
pio_response_port=board.iobus.mem_side_ports[26]

[board.cache_hierarchy.core_tiles0.l1d_cache.sequencer.power_state]
type=PowerState
clk_gate_bins=20
clk_gate_max=1000000000000
clk_gate_min=1000
default_state=UNDEFINED
eventq_index=0
leaders=
possible_states=

[board.cache_hierarchy.core_tiles0.l1d_cache.snpIn]
type=MessageBuffer
allow_zero_latency=false
buffer_size=0
eventq_index=0
max_dequeue_rate=0
ordered=false
randomization=ruby_system
routing_priority=0
in_port=board.cache_hierarchy.ruby_system.network.out_port[6]

[board.cache_hierarchy.core_tiles0.l1d_cache.snpOut]
type=MessageBuffer
allow_zero_latency=false
buffer_size=0
eventq_index=0
max_dequeue_rate=0
ordered=false
randomization=ruby_system
routing_priority=0
out_port=board.cache_hierarchy.ruby_system.network.in_port[6]

[board.cache_hierarchy.core_tiles0.l1d_cache.snpRdy]
type=MessageBuffer
allow_zero_latency=true
buffer_size=0
eventq_index=0
max_dequeue_rate=0
ordered=false
randomization=disabled
routing_priority=0

[board.cache_hierarchy.core_tiles0.l1d_cache.triggerQueue]
type=MessageBuffer
allow_zero_latency=true
buffer_size=0
eventq_index=0
max_dequeue_rate=0
ordered=false
randomization=disabled
routing_priority=0

[board.cache_hierarchy.core_tiles0.l1d_router_link]
type=SimpleExtLink
bandwidth_factor=64
eventq_index=0
ext_node=board.cache_hierarchy.core_tiles0.l1d_cache
int_node=board.cache_hierarchy.core_tiles0.intra_tile_router
latency=1
link_id=1
supported_vnets=
weight=1

[board.cache_hierarchy.core_tiles0.l1i_cache]
type=CHI_Cache_Controller
children=cache datIn datOut mandatoryQueue power_state prefetchQueue prefetcher replTriggerQueue reqIn reqOut reqRdy retryTriggerQueue rspIn rspOut sequencer snpIn snpOut snpRdy triggerQueue
addr_ranges=0:18446744073709551615
alloc_on_atomic=true
alloc_on_readonce=true
alloc_on_readshared=true
alloc_on_readunique=true
alloc_on_seq_acc=true
alloc_on_seq_line_write=true
alloc_on_writeback=false
allocation_latency=0
allow_SD=true
atomic_op_latency=0
buffer_size=0
cache=board.cache_hierarchy.core_tiles0.l1i_cache.cache
clk_domain=board.clk_domain
cluster_id=0
comp_anr=false
comp_anr_latency=0
comp_wu=false
comp_wu_latency=0
datIn=board.cache_hierarchy.core_tiles0.l1i_cache.datIn
datOut=board.cache_hierarchy.core_tiles0.l1i_cache.datOut
data_channel_size=32
data_latency=1